# MOL2 file generated by ConQuest
# Please check atom types

@<TRIPOS>MOLECULE
FAMKOV
    75    79     1
SMALL
NO_CHARGES
****
Generated from CSD

@<TRIPOS>ATOM
      1 Pr1        4.0660    3.8212    3.2140 Pr        1 RES1    0.0000
      2 P1         6.9330    5.0332    5.5281 P.3       1 RES1    0.0000
      3 P2         3.3608    4.8991    6.7596 P.3       1 RES1    0.0000
      4 P3         6.8271    2.5742    0.8062 P.3       1 RES1    0.0000
      5 P4         3.2745    2.9612   -0.4227 P.3       1 RES1    0.0000
      6 N1         4.4399    6.8066    2.7767 N.pl3     1 RES1    0.0000
      7 O1         4.7851    5.9260    1.9287 O.3       1 RES1    0.0000
      8 O2         3.8928    6.3811    3.8147 O.3       1 RES1    0.0000
      9 O3         4.6216    7.9948    2.5666 O.2       1 RES1    0.0000
     10 N2         1.0577    3.7688    3.2284 N.pl3     1 RES1    0.0000
     11 O4         1.7279    2.7191    3.4322 O.3       1 RES1    0.0000
     12 O5         1.6975    4.8391    3.0648 O.3       1 RES1    0.0000
     13 O6        -0.1601    3.7427    3.1730 O.2       1 RES1    0.0000
     14 N3         4.5832    0.8216    3.5857 N.pl3     1 RES1    0.0000
     15 O7         3.9592    1.1870    2.5616 O.3       1 RES1    0.0000
     16 O8         4.8662    1.7138    4.4337 O.3       1 RES1    0.0000
     17 O9         4.9360   -0.3436    3.7555 O.2       1 RES1    0.0000
     18 O10        6.0802    4.5347    4.4299 O.2       1 RES1    0.0000
     19 O11        3.3791    4.0646    5.5421 O.2       1 RES1    0.0000
     20 O12        8.1746    4.1273    5.8126 O.3       1 RES1    0.0000
     21 O13        7.5629    6.4370    5.2602 O.3       1 RES1    0.0000
     22 O14        3.2696    4.0576    8.0520 O.3       1 RES1    0.0000
     23 O15        2.1787    5.9153    6.8203 O.3       1 RES1    0.0000
     24 O16        5.9871    3.1276    1.8834 O.2       1 RES1    0.0000
     25 O17        3.2471    3.5726    0.9197 O.2       1 RES1    0.0000
     26 O18        8.1137    3.4183    0.5334 O.3       1 RES1    0.0000
     27 O19        7.3823    1.1446    1.0996 O.3       1 RES1    0.0000
     28 O20        3.4401    3.9591   -1.6029 O.3       1 RES1    0.0000
     29 O21        1.9656    2.1747   -0.7599 O.3       1 RES1    0.0000
     30 C1         4.7679    5.9870    6.9851 C.3       1 RES1    0.0000
     31 H1         4.8008    6.6275    6.2303 H         1 RES1    0.0000
     32 H2         4.6396    6.5082    7.8168 H         1 RES1    0.0000
     33 C2         6.0698    5.2655    7.0644 C.2       1 RES1    0.0000
     34 C3         6.5869    4.8139    8.2055 C.2       1 RES1    0.0000
     35 H3         6.1220    4.9454    9.0233 H         1 RES1    0.0000
     36 H4         7.4219    4.3595    8.2018 H         1 RES1    0.0000
     37 C4         8.0880    2.6875    5.7094 C.3       1 RES1    0.0000
     38 H5         7.3074    2.4445    5.1697 H         1 RES1    0.0000
     39 H6         7.9990    2.3011    6.6052 H         1 RES1    0.0000
     40 H7         8.8997    2.3409    5.2829 H         1 RES1    0.0000
     41 C5         8.1161    6.7628    3.9593 C.3       1 RES1    0.0000
     42 H8         7.3887    6.8587    3.3101 H         1 RES1    0.0000
     43 H9         8.7181    6.0445    3.6712 H         1 RES1    0.0000
     44 H10        8.6151    7.6044    4.0172 H         1 RES1    0.0000
     45 C6         3.0921    2.6321    8.0621 C.3       1 RES1    0.0000
     46 H11        3.9039    2.2000    7.7237 H         1 RES1    0.0000
     47 H12        2.3333    2.3943    7.4897 H         1 RES1    0.0000
     48 H13        2.9193    2.3316    8.9780 H         1 RES1    0.0000
     49 C7         0.8631    5.5047    6.4605 C.3       1 RES1    0.0000
     50 H14        0.5774    4.7739    7.0468 H         1 RES1    0.0000
     51 H15        0.8593    5.1975    5.5295 H         1 RES1    0.0000
     52 H16        0.2467    6.2616    6.5574 H         1 RES1    0.0000
     53 C8         4.5874    1.7750   -0.6932 C.3       1 RES1    0.0000
     54 H17        4.5552    1.0986    0.0289 H         1 RES1    0.0000
     55 H18        4.4187    1.3068   -1.5488 H         1 RES1    0.0000
     56 C9         5.9749    2.3717   -0.7347 C.2       1 RES1    0.0000
     57 C10        6.5713    2.7068   -1.8759 C.2       1 RES1    0.0000
     58 H19        6.1233    2.5735   -2.7025 H         1 RES1    0.0000
     59 H20        7.4449    3.0795   -1.8633 H         1 RES1    0.0000
     60 C11        8.0864    4.8594    0.6366 C.3       1 RES1    0.0000
     61 H21        7.3461    5.1309    1.2179 H         1 RES1    0.0000
     62 H22        7.9611    5.2481   -0.2541 H         1 RES1    0.0000
     63 H23        8.9326    5.1762    1.0153 H         1 RES1    0.0000
     64 C12        8.0356    0.8598    2.3741 C.3       1 RES1    0.0000
     65 H24        7.3703    0.8813    3.0937 H         1 RES1    0.0000
     66 H25        8.7252    1.5337    2.5452 H         1 RES1    0.0000
     67 H26        8.4475   -0.0289    2.3376 H         1 RES1    0.0000
     68 C13        2.6414    5.1584   -1.6230 C.3       1 RES1    0.0000
     69 H27        3.0002    5.8014   -0.9763 H         1 RES1    0.0000
     70 H28        1.7162    4.9379   -1.3852 H         1 RES1    0.0000
     71 H29        2.6630    5.5497   -2.5200 H         1 RES1    0.0000
     72 C14        1.0616    1.7356    0.1950 C.3       1 RES1    0.0000
     73 H30        1.0826    2.3400    0.9662 H         1 RES1    0.0000
     74 H31        1.3047    0.8304    0.4831 H         1 RES1    0.0000
     75 H32        0.1607    1.7256   -0.1875 H         1 RES1    0.0000
@<TRIPOS>BOND
     1    1    7 1
     2    2   18 2
     3    3   19 2
     4    4   24 2
     5    5   25 2
     6    6    7 1
     7    8    1 1
     8    9    6 2
     9   10   11 1
    10   11    1 1
    11   12    1 1
    12   13   10 2
    13   14   15 1
    14   15    1 1
    15   16    1 1
    16   17   14 2
    17   18    1 1
    18   19    1 1
    19   20    2 1
    20   21    2 1
    21   22    3 1
    22   23    3 1
    23   24    1 1
    24   25    1 1
    25   26    4 1
    26   27    4 1
    27   28    5 1
    28   29    5 1
    29   30    3 1
    30   31   30 1
    31   32   30 1
    32   33    2 1
    33   34   33 2
    34   35   34 1
    35   36   34 1
    36   37   20 1
    37   38   37 1
    38   39   37 1
    39   40   37 1
    40   41   21 1
    41   42   41 1
    42   43   41 1
    43   44   41 1
    44   45   22 1
    45   46   45 1
    46   47   45 1
    47   48   45 1
    48   49   23 1
    49   50   49 1
    50   51   49 1
    51   52   49 1
    52   53    5 1
    53   54   53 1
    54   55   53 1
    55   56    4 1
    56   57   56 2
    57   58   57 1
    58   59   57 1
    59   60   26 1
    60   61   60 1
    61   62   60 1
    62   63   60 1
    63   64   27 1
    64   65   64 1
    65   66   64 1
    66   67   64 1
    67   68   28 1
    68   69   68 1
    69   70   68 1
    70   71   68 1
    71   72   29 1
    72   73   72 1
    73   74   72 1
    74   75   72 1
    75    6    8 1
    76   10   12 1
    77   14   16 1
    78   30   33 1
    79   53   56 1
@<TRIPOS>SUBSTRUCTURE
     1 RES1 1

@<TRIPOS>CRYSIN
   9.9327   13.3708   13.5448  74.6369  71.1100  73.4070   2 1

