# MOL2 file generated by ConQuest
# Please check atom types

@<TRIPOS>MOLECULE
LILHIZ
   102   111     2
SMALL
USER_CHARGES
****
Generated from CSD

@<TRIPOS>ATOM
      1 Co1        0.1888    2.0528    2.0732 Co.oh     1 RES1    1.0000
      2 O1        -1.1064    1.2773    0.7594 O.co2     1 RES1    0.0000
      3 N1         1.5169    2.7993    3.7856 N.3       1 RES1    0.0000
      4 O2        -0.4612    3.2544    0.0540 O.co2     1 RES1    0.0000
      5 N2        -2.3189    5.0464    3.4561 N.pl3     1 RES1    0.0000
      6 N3        -0.9571    3.4783    3.0022 N.2       1 RES1    0.0000
      7 N4         0.3511    0.3964    3.3193 N.ar      1 RES1    0.0000
      8 N5        -2.0735    4.0623    2.5834 N.2       1 RES1    0.0000
      9 N6         2.0781    2.2189    1.2562 N.ar      1 RES1    0.0000
     10 C1         2.1757    1.6123    4.3688 C.3       1 RES1    0.0000
     11 H1         2.3637    1.7788    5.3259 H         1 RES1    0.0000
     12 H2         3.0392    1.4583    3.9098 H         1 RES1    0.0000
     13 C2         2.9360    3.0812    1.8282 C.ar      1 RES1    0.0000
     14 C3        -3.5726    5.8408    3.3183 C.3       1 RES1    0.0000
     15 C4         1.5479   -0.7366    5.0358 C.ar      1 RES1    0.0000
     16 H3         2.2539   -0.7362    5.6714 H         1 RES1    0.0000
     17 C5        -1.3849    5.0787    4.4302 C.2       1 RES1    0.0000
     18 H4        -1.3422    5.6763    5.1673 H         1 RES1    0.0000
     19 C6         2.4742    3.6973    3.1185 C.3       1 RES1    0.0000
     20 H5         3.2516    3.8547    3.7102 H         1 RES1    0.0000
     21 H6         2.0422    4.5692    2.9356 H         1 RES1    0.0000
     22 C7         0.7014    3.5219    4.7960 C.3       1 RES1    0.0000
     23 H7         1.2318    4.2582    5.1928 H         1 RES1    0.0000
     24 H8         0.4391    2.9021    5.5213 H         1 RES1    0.0000
     25 C8         4.1528    3.3857    1.2235 C.ar      1 RES1    0.0000
     26 H9         4.7449    4.0108    1.6243 H         1 RES1    0.0000
     27 C9        -3.8580    6.0511    1.8341 C.3       1 RES1    0.0000
     28 H10       -3.1029    6.5196    1.4189 H         1 RES1    0.0000
     29 H11       -4.6713    6.5869    1.7305 H         1 RES1    0.0000
     30 H12       -3.9813    5.1824    1.3991 H         1 RES1    0.0000
     31 C10       -0.5194    4.0752    4.1333 C.2       1 RES1    0.0000
     32 C11        1.3175    0.3885    4.2368 C.ar      1 RES1    0.0000
     33 C12       -1.2084    2.2741   -0.0445 C.2       1 RES1    0.0000
     34 C13        4.4898    2.7701    0.0353 C.ar      1 RES1    0.0000
     35 H13        5.3116    2.9799   -0.3951 H         1 RES1    0.0000
     36 C14       -0.2755   -1.8157    3.9581 C.ar      1 RES1    0.0000
     37 H14       -0.8549   -2.5610    3.8532 H         1 RES1    0.0000
     38 C15       -3.3654    7.1849    4.0182 C.3       1 RES1    0.0000
     39 H15       -3.1659    7.0327    4.9648 H         1 RES1    0.0000
     40 H16       -4.1806    7.7240    3.9381 H         1 RES1    0.0000
     41 H17       -2.6174    7.6598    3.5997 H         1 RES1    0.0000
     42 C16       -4.6793    5.0482    3.9883 C.3       1 RES1    0.0000
     43 H18       -4.7588    4.1713    3.5586 H         1 RES1    0.0000
     44 H19       -5.5272    5.5322    3.9013 H         1 RES1    0.0000
     45 H20       -4.4681    4.9292    4.9379 H         1 RES1    0.0000
     46 C17       -0.4388   -0.6885    3.1777 C.ar      1 RES1    0.0000
     47 H21       -1.1263   -0.6766    2.5221 H         1 RES1    0.0000
     48 C18        3.6306    1.8500   -0.5247 C.ar      1 RES1    0.0000
     49 H22        3.8576    1.3936   -1.3269 H         1 RES1    0.0000
     50 C19        2.4386    1.6118    0.1102 C.ar      1 RES1    0.0000
     51 H23        1.8374    0.9879   -0.2790 H         1 RES1    0.0000
     52 C20        0.7402   -1.8458    4.8930 C.ar      1 RES1    0.0000
     53 H24        0.8808   -2.6176    5.4293 H         1 RES1    0.0000
     54 C21       -2.2831    2.2015   -1.0870 C.3       1 RES1    0.0000
     55 H25       -2.4441    3.0963   -1.4529 H         1 RES1    0.0000
     56 H26       -3.1085    1.8609   -0.6826 H         1 RES1    0.0000
     57 H27       -1.9995    1.6001   -1.8069 H         1 RES1    0.0000
     58 C22        1.6940    0.1665    9.9298 C.ar      2 RES2    0.0000
     59 C23        3.0411    3.2751    7.7144 C.ar      2 RES2    0.0000
     60 H28        2.4623    3.9702    8.0066 H         2 RES2    0.0000
     61 C24       -0.5270    3.0661    8.3384 C.ar      2 RES2    0.0000
     62 H29       -0.2723    3.7825    8.9072 H         2 RES2    0.0000
     63 C25        4.0518    3.5851    6.8097 C.ar      2 RES2    0.0000
     64 H30        4.1535    4.4769    6.4998 H         2 RES2    0.0000
     65 C26        3.7265    1.0067    7.7255 C.ar      2 RES2    0.0000
     66 H31        3.6300    0.1111    8.0250 H         2 RES2    0.0000
     67 C27       -0.1778    0.9118    7.4524 C.ar      2 RES2    0.0000
     68 H32        0.3301    0.1105    7.3920 H         2 RES2    0.0000
     69 C28        0.5856    3.0466   11.3359 C.ar      2 RES2    0.0000
     70 H33       -0.2682    2.7115   11.0908 H         2 RES2    0.0000
     71 C29        1.6957    2.7147   10.5378 C.ar      2 RES2    0.0000
     72 C30        2.8477   -0.2272   10.6412 C.ar      2 RES2    0.0000
     73 H34        3.5911    0.3640   10.6688 H         2 RES2    0.0000
     74 C31        2.8377    1.9710    8.2183 C.ar      2 RES2    0.0000
     75 C32        0.6906    3.8486   12.4719 C.ar      2 RES2    0.0000
     76 H35       -0.0878    4.0636   12.9714 H         2 RES2    0.0000
     77 C33        0.2348    1.8892    8.3644 C.ar      2 RES2    0.0000
     78 C34       -2.0379    2.2102    6.6720 C.ar      2 RES2    0.0000
     79 H36       -2.8131    2.3047    6.1302 H         2 RES2    0.0000
     80 C35        2.9208    3.2173   11.0020 C.ar      2 RES2    0.0000
     81 H37        3.7075    3.0125   10.5116 H         2 RES2    0.0000
     82 C36        3.0390    3.9973   12.1390 C.ar      2 RES2    0.0000
     83 H38        3.8960    4.3027   12.4134 H         2 RES2    0.0000
     84 C37        2.9404   -1.4430   11.3004 C.ar      2 RES2    0.0000
     85 H39        3.7322   -1.6601   11.7790 H         2 RES2    0.0000
     86 C38        4.7437    1.2942    6.8178 C.ar      2 RES2    0.0000
     87 H40        5.3203    0.6022    6.5140 H         2 RES2    0.0000
     88 C39        0.6478   -0.7625    9.9435 C.ar      2 RES2    0.0000
     89 H41       -0.1602   -0.5439    9.4935 H         2 RES2    0.0000
     90 C40       -1.6428    3.2360    7.5157 C.ar      2 RES2    0.0000
     91 H42       -2.1296    4.0516    7.5350 H         2 RES2    0.0000
     92 C41        1.9254    4.3340   12.8754 C.ar      2 RES2    0.0000
     93 H43        2.0010    4.8877   13.6440 H         2 RES2    0.0000
     94 C42        0.7396   -1.9987   10.5901 C.ar      2 RES2    0.0000
     95 H44        0.0061   -2.6019   10.5626 H         2 RES2    0.0000
     96 C43        1.8887   -2.3449   11.2671 C.ar      2 RES2    0.0000
     97 H45        1.9585   -3.1857   11.7026 H         2 RES2    0.0000
     98 C44       -1.2937    1.0500    6.6273 C.ar      2 RES2    0.0000
     99 H46       -1.5402    0.3479    6.0368 H         2 RES2    0.0000
    100 C45        4.9139    2.5913    6.3580 C.ar      2 RES2    0.0000
    101 H47        5.6081    2.7984    5.7437 H         2 RES2    0.0000
    102 B1         1.5956    1.6823    9.2663 B         2 RES2   -1.0000
@<TRIPOS>BOND
     1    1    2 1
     2    2   33 un
     3    3    1 1
     4    4    1 1
     5    5    8 1
     6    6    1 1
     7    7    1 1
     8    8    6 2
     9    9    1 1
    10   10    3 1
    11   11   10 1
    12   12   10 1
    13   13    9 ar
    14   14    5 1
    15   15   16 1
    16   17    5 1
    17   18   17 1
    18   19    3 1
    19   20   19 1
    20   21   19 1
    21   22    3 1
    22   23   22 1
    23   24   22 1
    24   25   13 ar
    25   26   25 1
    26   27   14 1
    27   28   27 1
    28   29   27 1
    29   30   27 1
    30   31    6 1
    31   32    7 ar
    32   33    4 un
    33   34   25 ar
    34   35   34 1
    35   36   37 1
    36   38   14 1
    37   39   38 1
    38   40   38 1
    39   41   38 1
    40   42   14 1
    41   43   42 1
    42   44   42 1
    43   45   42 1
    44   46    7 ar
    45   47   46 1
    46   48   34 ar
    47   49   48 1
    48   50    9 ar
    49   51   50 1
    50   52   15 ar
    51   53   52 1
    52   54   33 1
    53   55   54 1
    54   56   54 1
    55   57   54 1
    56   58   72 ar
    57   59   60 1
    58   61   62 1
    59   63   59 ar
    60   64   63 1
    61   65   66 1
    62   67   68 1
    63   69   70 1
    64   71   69 ar
    65   72   73 1
    66   74   59 ar
    67   75   69 ar
    68   76   75 1
    69   77   61 ar
    70   78   79 1
    71   80   71 ar
    72   81   80 1
    73   82   80 ar
    74   83   82 1
    75   84   72 ar
    76   85   84 1
    77   86   65 ar
    78   87   86 1
    79   88   58 ar
    80   89   88 1
    81   90   61 ar
    82   91   90 1
    83   92   75 ar
    84   93   92 1
    85   94   88 ar
    86   95   94 1
    87   96   84 ar
    88   97   96 1
    89   98   67 ar
    90   99   98 1
    91  100   63 ar
    92  101  100 1
    93  102   58 1
    94   10   32 1
    95   13   19 1
    96   15   32 ar
    97   17   31 2
    98   22   31 1
    99   36   46 ar
   100   36   52 ar
   101   48   50 ar
   102   65   74 ar
   103   67   77 ar
   104   71  102 1
   105   74  102 1
   106   77  102 1
   107   78   90 ar
   108   78   98 ar
   109   82   92 ar
   110   86  100 ar
   111   94   96 ar
@<TRIPOS>SUBSTRUCTURE
     1 RES1 1
     2 RES2 58

@<TRIPOS>CRYSIN
  11.1200   13.2060   14.5920  91.8110 102.3610 109.9470   2 1

