# MOL2 file generated by ConQuest
# Please check atom types

@<TRIPOS>MOLECULE
PIDYOR
    56    59     3
SMALL
USER_CHARGES
****
Generated from CSD

@<TRIPOS>ATOM
      1 Mn1        0.5217    2.0846   10.3556 Mn        1 RES1    0.0000
      2 N1        -1.2383    2.6300    9.0899 N.ar      1 RES1    0.0000
      3 N2         0.8350    5.1492    6.0777 N.pl3     2 RES2    1.0000
      4 H1         1.4634    4.8778    6.5976 H         2 RES2    0.0000
      5 N3        -0.2811    5.5700    4.2582 N.pl3     2 RES2    0.0000
      6 H2        -0.4846    5.6178    3.4236 H         2 RES2    0.0000
      7 C1        -2.3284    6.5720    5.3663 C.ar      2 RES2    0.0000
      8 H3        -2.8230    6.7371    4.5969 H         2 RES2    0.0000
      9 C2        -1.0743    5.9860    5.3135 C.ar      2 RES2    0.0000
     10 C3        -0.3523    5.7252    6.4785 C.ar      2 RES2    0.0000
     11 C4        -0.8484    6.0432    7.7356 C.ar      2 RES2    0.0000
     12 H4        -0.3703    5.8646    8.5133 H         2 RES2    0.0000
     13 C5        -2.0921    6.6392    7.7646 C.ar      2 RES2    0.0000
     14 H5        -2.4621    6.8742    8.5848 H         2 RES2    0.0000
     15 C6        -2.8013    6.8959    6.6110 C.ar      2 RES2    0.0000
     16 H6        -3.6341    7.3042    6.6794 H         2 RES2    0.0000
     17 C7         0.8420    5.0864    4.7563 C.2       2 RES2    0.0000
     18 H7         1.5434    4.7478    4.2468 H         2 RES2    0.0000
     19 C8        -3.5345    3.5608    7.8112 C.ar      1 RES1    0.0000
     20 C9        -3.3727    3.6977    9.1865 C.ar      1 RES1    0.0000
     21 H8        -4.0333    4.1086    9.6970 H         1 RES1    0.0000
     22 C10       -2.2276    3.2196    9.7892 C.ar      1 RES1    0.0000
     23 C11       -1.4022    2.4794    7.7688 C.ar      1 RES1    0.0000
     24 H9        -0.7292    2.0662    7.2779 H         1 RES1    0.0000
     25 C12       -2.5373    2.9174    7.1112 C.ar      1 RES1    0.0000
     26 H10       -2.6265    2.7778    6.1958 H         1 RES1    0.0000
     27 C13       -2.0137    3.2822   11.2918 C.2       1 RES1    0.0000
     28 C14       -4.7542    4.0973    7.0926 C.2       1 RES1    0.0000
     29 O1        -5.6334    4.6852    7.8166 O.co2     1 RES1    0.0000
     30 O2        -4.8329    3.9454    5.8724 O.co2     1 RES1   -1.0000
     31 O3        -2.9374    3.7705   11.9873 O.co2     1 RES1    0.0000
     32 O4        -0.9299    2.8319   11.7592 O.co2     1 RES1    0.0000
     33 O5         1.3957    4.1322   10.0822 O.3       1 RES1    0.0000
     34 H11        1.9210    4.2599    9.3304 H         1 RES1    0.0000
     35 H12        1.9352    4.3791   10.7181 H         1 RES1    0.0000
     36 O6         3.1085    5.1347   12.0115 O.3       3 RES3    0.0000
     37 H13        3.7997    4.8736   12.0022 H         3 RES3    0.0000
     38 H14        3.1594    6.0219   12.1575 H         3 RES3    0.0000
     39 N1A        2.2818    1.5392   11.6213 N.ar      1 RES1    0.0000
     40 C8A        4.5779    0.6084   12.9000 C.ar      1 RES1    0.0000
     41 C9A        4.4161    0.4715   11.5248 C.ar      1 RES1    0.0000
     42 H8A        5.0767    0.0606   11.0142 H         1 RES1    0.0000
     43 C10A       3.2710    0.9496   10.9221 C.ar      1 RES1    0.0000
     44 C11A       2.4457    1.6898   12.9424 C.ar      1 RES1    0.0000
     45 H9A        1.7727    2.1030   13.4333 H         1 RES1    0.0000
     46 C12A       3.5808    1.2518   13.6000 C.ar      1 RES1    0.0000
     47 H10A       3.6700    1.3914   14.5155 H         1 RES1    0.0000
     48 C13A       3.0571    0.8870    9.4195 C.2       1 RES1    0.0000
     49 C14A       5.7976    0.0719   13.6187 C.2       1 RES1    0.0000
     50 O1A        6.6769   -0.5160   12.8946 O.co2     1 RES1    0.0000
     51 O2A        5.8764    0.2238   14.8389 O.co2     1 RES1   -1.0000
     52 O3A        3.9809    0.3987    8.7239 O.co2     1 RES1    0.0000
     53 O4A        1.9734    1.3373    8.9520 O.co2     1 RES1    0.0000
     54 O5A       -0.3522    0.0370   10.6290 O.3       1 RES1    0.0000
     55 H11A      -0.8775   -0.0907   11.3808 H         1 RES1    0.0000
     56 H12A      -0.8917   -0.2098    9.9932 H         1 RES1    0.0000
@<TRIPOS>BOND
     1    1    2 1
     2    2   22 ar
     3    3    4 1
     4    5    6 1
     5    7    8 1
     6    9    5 1
     7   10    3 1
     8   11   10 ar
     9   12   11 1
    10   13   11 ar
    11   14   13 1
    12   15    7 ar
    13   16   15 1
    14   17    3 2
    15   18   17 1
    16   19   20 ar
    17   20   21 1
    18   22   20 ar
    19   23    2 ar
    20   24   23 1
    21   25   19 ar
    22   26   25 1
    23   27   22 1
    24   28   19 1
    25   29   28 2
    26   30   28 1
    27   31   27 2
    28   32    1 1
    29   33    1 1
    30   34   33 1
    31   35   33 1
    32   36   37 1
    33   38   36 1
    34   39    1 1
    35   40   41 ar
    36   41   42 1
    37   43   39 ar
    38   44   39 ar
    39   45   44 1
    40   46   40 ar
    41   47   46 1
    42   48   43 1
    43   49   40 1
    44   50   49 2
    45   51   49 1
    46   52   48 2
    47   53    1 1
    48   54    1 1
    49   55   54 1
    50   56   54 1
    51    5   17 1
    52    7    9 ar
    53    9   10 ar
    54   13   15 ar
    55   23   25 ar
    56   27   32 1
    57   41   43 ar
    58   44   46 ar
    59   48   53 1
@<TRIPOS>SUBSTRUCTURE
     1 RES1 1
     2 RES2 3
     3 RES3 36

@<TRIPOS>CRYSIN
   8.4882    9.0617   10.7716  96.5390 101.0320 111.5080   2 1

