####################################################################### 
# 
# This file contains crystal structure data downloaded from the 
# Cambridge Structural Database (CSD) hosted by the Cambridge 
# Crystallographic Data Centre (CCDC).
# 
# Full information about CCDC data access policies and citation 
# guidelines are available at http://www.ccdc.cam.ac.uk/access/V1 
# 
# Audit and citation data items may have been added by the CCDC. 
# Please retain this information to preserve the provenance of 
# this file and to allow appropriate attribution of the data. 
# 
#######################################################################
@<TRIPOS>MOLECULE
836520
   211   231     4     0     0
SMALL
NO_CHARGES
****
Generated from the CSD

@<TRIPOS>ATOM
     1 Re1      8.5879   5.8539   0.1970   Re        1 RES1   0.0000
     2 C1       9.8236   2.2493   2.5328   C.ar      1 RES1   0.0000
     3 C2      10.0836   1.6640   3.6251   C.ar      1 RES1   0.0000
     4 H1      10.3518   0.7743   3.6521   H         1 RES1   0.0000
     5 C3       9.9408   2.4697   4.8495   C.ar      1 RES1   0.0000
     6 H2      10.0928   2.0866   5.6837   H         1 RES1   0.0000
     7 C4       9.5752   3.8109   4.7505   C.ar      1 RES1   0.0000
     8 H3       9.5133   4.3227   5.5247   H         1 RES1   0.0000
     9 C5       9.3096   4.3831   3.5666   C.ar      1 RES1   0.0000
    10 H4       9.0208   5.2676   3.5351   H         1 RES1   0.0000
    11 C6       9.4560   3.6744   2.4037   C.ar      1 RES1   0.0000
    12 C7       9.4845   2.8477   0.3676   C.2       1 RES1   0.0000
    13 C8       9.4345   2.8004  -1.0758   C.ar      1 RES1   0.0000
    14 C9       8.4705   3.6666  -1.8006   C.ar      1 RES1   0.0000
    15 C10      8.4060   3.4960  -3.1300   C.ar      1 RES1   0.0000
    16 H5       7.7700   3.9868  -3.5981   H         1 RES1   0.0000
    17 C11      9.2425   2.6194  -3.8667   C.ar      1 RES1   0.0000
    18 H6       9.1741   2.5537  -4.7925   H         1 RES1   0.0000
    19 C12     10.1648   1.8635  -3.1585   C.ar      1 RES1   0.0000
    20 H7      10.7270   1.2703  -3.6041   H         1 RES1   0.0000
    21 C13     10.2463   2.0052  -1.7630   C.ar      1 RES1   0.0000
    22 H8      10.8914   1.5196  -1.3024   H         1 RES1   0.0000
    23 C14      9.7579   0.3307   0.8763   C.ar      1 RES1   0.0000
    24 C15     10.7891  -0.3622   1.1944   C.ar      1 RES1   0.0000
    25 H9      11.5467   0.0394   1.5545   H         1 RES1   0.0000
    26 C16     10.7278  -1.8005   0.9708   C.ar      1 RES1   0.0000
    27 H10     11.4700  -2.3333   1.1449   H         1 RES1   0.0000
    28 C17      9.5432  -2.3648   0.4876   C.ar      1 RES1   0.0000
    29 H11      9.4568  -3.2808   0.3436   H         1 RES1   0.0000
    30 C18      8.4516  -1.4330   0.2266   C.ar      1 RES1   0.0000
    31 H12      7.6242  -1.7716  -0.0300   H         1 RES1   0.0000
    32 C19      8.5959  -0.1155   0.3421   C.ar      1 RES1   0.0000
    33 H13      7.9299   0.4724   0.0675   H         1 RES1   0.0000
    34 C20      5.9150   4.5222   1.0833   C.ar      1 RES1   0.0000
    35 H14      6.1226   3.9605   0.3721   H         1 RES1   0.0000
    36 C21      4.7386   4.2938   1.8096   C.ar      1 RES1   0.0000
    37 H15      4.2036   3.5458   1.6745   H         1 RES1   0.0000
    38 C22      4.4325   5.2833   2.7563   C.ar      1 RES1   0.0000
    39 H16      3.6071   5.2151   3.1840   H         1 RES1   0.0000
    40 C23      5.1602   6.2544   3.0819   C.ar      1 RES1   0.0000
    41 H17      4.9478   6.8502   3.7647   H         1 RES1   0.0000
    42 C24      6.3575   6.3515   2.2927   C.ar      1 RES1   0.0000
    43 H18      6.9053   7.0838   2.4533   H         1 RES1   0.0000
    44 C25      7.8780   7.3882  -0.6857   C.1       1 RES1   0.0000
    45 C26      9.3066   6.7925   1.3414   C.1       1 RES1   0.0000
    46 C27     10.1834   6.0523  -0.9378   C.1       1 RES1   0.0000
    47 N1       9.2674   4.0078   1.0593   N.2       1 RES1   0.0000
    48 N2       9.7832   1.8398   1.1464   N.pl3     1 RES1   0.0000
    49 N3       6.7517   5.5222   1.3789   N.ar      1 RES1   0.0000
    50 O1       7.3929   8.3016  -1.1403   O.2       1 RES1   0.0000
    51 O2       9.9004   7.6586   2.1457   O.2       1 RES1   0.0000
    52 O3      11.1254   6.3095  -1.3969   O.2       1 RES1   0.0000
    53 O4       7.7348   4.4933  -1.1944   O.3       1 RES1   0.0000
    54 Re2      2.1996   0.7084   5.5232   Re        2 RES2   0.0000
    55 C28      1.3505   2.9763   3.2725   C.ar      2 RES2   0.0000
    56 C29      1.4318   2.1627   2.1187   C.ar      2 RES2   0.0000
    57 H19      1.6277   1.2546   2.1547   H         2 RES2   0.0000
    58 C30      1.1909   2.8451   0.9138   C.ar      2 RES2   0.0000
    59 H20      1.2922   2.3910   0.1080   H         2 RES2   0.0000
    60 C31      0.8062   4.1731   0.8988   C.ar      2 RES2   0.0000
    61 H21      0.6022   4.5616   0.0795   H         2 RES2   0.0000
    62 C32      0.7168   4.9028   1.9611   C.ar      2 RES2   0.0000
    63 H22      0.4886   5.8030   1.9191   H         2 RES2   0.0000
    64 C33      0.9947   4.2282   3.2485   C.ar      2 RES2   0.0000
    65 C34      1.3450   3.6613   5.3131   C.2       2 RES2   0.0000
    66 C35      1.4116   3.7191   6.7956   C.ar      2 RES2   0.0000
    67 C36      2.2729   2.9894   7.5158   C.ar      2 RES2   0.0000
    68 C37      2.3009   3.0734   8.9698   C.ar      2 RES2   0.0000
    69 H23      2.9318   2.6167   9.4769   H         2 RES2   0.0000
    70 C38      1.3667   3.8503   9.5309   C.ar      2 RES2   0.0000
    71 H24      1.3350   3.8555  10.4612   H         2 RES2   0.0000
    72 C39      0.4667   4.6219   8.8962   C.ar      2 RES2   0.0000
    73 H25     -0.1505   5.1311   9.3689   H         2 RES2   0.0000
    74 C40      0.4962   4.6298   7.5293   C.ar      2 RES2   0.0000
    75 H26     -0.0590   5.2072   7.0567   H         2 RES2   0.0000
    76 C41      1.0631   6.0707   4.8660   C.ar      2 RES2   0.0000
    77 C42      2.2480   6.6691   5.3671   C.ar      2 RES2   0.0000
    78 H27      3.0016   6.1468   5.5247   H         2 RES2   0.0000
    79 C43      2.2821   8.0733   5.6312   C.ar      2 RES2   0.0000
    80 H28      3.0294   8.4591   6.0319   H         2 RES2   0.0000
    81 C44      1.2891   8.7898   5.3146   C.ar      2 RES2   0.0000
    82 H29      1.3377   9.7005   5.4932   H         2 RES2   0.0000
    83 C45      0.1343   8.3147   4.7234   C.ar      2 RES2   0.0000
    84 H30     -0.5268   8.9105   4.4489   H         2 RES2   0.0000
    85 C46     -0.0340   7.0313   4.5509   C.ar      2 RES2   0.0000
    86 H31     -0.8442   6.7137   4.2268   H         2 RES2   0.0000
    87 C47      4.8780   1.9894   4.5794   C.ar      2 RES2   0.0000
    88 H32      4.6373   2.6194   5.2216   H         2 RES2   0.0000
    89 C48      6.0566   2.1181   3.9867   C.ar      2 RES2   0.0000
    90 H33      6.6628   2.7348   4.3348   H         2 RES2   0.0000
    91 C49      6.4186   1.4094   2.9154   C.ar      2 RES2   0.0000
    92 H34      7.2088   1.5485   2.4458   H         2 RES2   0.0000
    93 C50      5.4360   0.3989   2.5673   C.ar      2 RES2   0.0000
    94 H35      5.5985  -0.1365   1.8246   H         2 RES2   0.0000
    95 C51      4.3225   0.2021   3.2545   C.ar      2 RES2   0.0000
    96 H36      3.7424  -0.4856   3.0219   H         2 RES2   0.0000
    97 C52      1.3818  -0.4960   4.2868   C.1       2 RES2   0.0000
    98 C53      2.9783  -0.8241   6.2989   C.1       2 RES2   0.0000
    99 C54      0.7250   0.4462   6.5450   C.1       2 RES2   0.0000
   100 N4       1.5836   2.6141   4.6124   N.2       2 RES2   0.0000
   101 N5       0.9936   4.7610   4.5134   N.pl3     2 RES2   0.0000
   102 N6       4.0344   1.0236   4.3108   N.ar      2 RES2   0.0000
   103 O5       0.8313  -1.2204   3.5396   O.2       2 RES2   0.0000
   104 O6       3.4294  -1.8031   6.8016   O.2       2 RES2   0.0000
   105 O7      -0.2429   0.4147   7.3147   O.2       2 RES2   0.0000
   106 O8       3.1012   2.1049   6.8586   O.3       2 RES2   0.0000
   107 Re3      0.2911  12.4146  13.0262   Re        3 RES3   0.0000
   108 C55     -0.9362   8.8921  10.7778   C.ar      3 RES3   0.0000
   109 C56     -1.1869   8.2412   9.4499   C.ar      3 RES3   0.0000
   110 H37     -1.3839   7.3358   9.3899   H         3 RES3   0.0000
   111 C57     -1.1237   8.9473   8.4341   C.ar      3 RES3   0.0000
   112 H38     -1.3506   8.5614   7.6193   H         3 RES3   0.0000
   113 C58     -0.7389  10.2779   8.4386   C.ar      3 RES3   0.0000
   114 H39     -0.6589  10.7320   7.6313   H         3 RES3   0.0000
   115 C59     -0.4648  10.9603   9.6555   C.ar      3 RES3   0.0000
   116 H40     -0.2267  11.8606   9.6870   H         3 RES3   0.0000
   117 C60     -0.5833  10.1703  10.7943   C.ar      3 RES3   0.0000
   118 C61     -0.5494   9.4538  12.8694   C.2       3 RES3   0.0000
   119 C62     -0.5132   9.3803  14.3294   C.ar      3 RES3   0.0000
   120 C63      0.3761  10.1729  14.9206   C.ar      3 RES3   0.0000
   121 C64      0.3903  10.0890  16.3910   C.ar      3 RES3   0.0000
   122 H41      1.0044  10.5876  16.8787   H         3 RES3   0.0000
   123 C65     -0.4654   9.3121  17.0137   C.ar      3 RES3   0.0000
   124 H42     -0.4095   9.2727  17.9410   H         3 RES3   0.0000
   125 C66     -1.4435   8.5431  16.4015   C.ar      3 RES3   0.0000
   126 H43     -2.0862   8.0916  16.8982   H         3 RES3   0.0000
   127 C67     -1.4250   8.4775  15.0301   C.ar      3 RES3   0.0000
   128 H44     -1.9677   7.8843  14.5650   H         3 RES3   0.0000
   129 C68     -0.8534   7.0602  12.3578   C.ar      3 RES3   0.0000
   130 C69     -1.9540   6.1547  12.0562   C.ar      3 RES3   0.0000
   131 H45     -2.7541   6.4985  11.7306   H         3 RES3   0.0000
   132 C70     -1.8276   4.8293  12.2423   C.ar      3 RES3   0.0000
   133 H46     -2.5241   4.2624  12.0022   H         3 RES3   0.0000
   134 C71     -0.7120   4.3201  12.7689   C.ar      3 RES3   0.0000
   135 H47     -0.6760   3.3989  12.9025   H         3 RES3   0.0000
   136 C72      0.3353   5.0261  13.1095   C.ar      3 RES3   0.0000
   137 H48      1.0763   4.6193  13.4966   H         3 RES3   0.0000
   138 C73      0.3173   6.4171  12.8770   C.ar      3 RES3   0.0000
   139 H49      1.0729   6.9237  13.0645   H         3 RES3   0.0000
   140 C74      2.4571  12.9209  10.7163   C.ar      3 RES3   0.0000
   141 H50      1.8821  13.6086  10.4732   H         3 RES3   0.0000
   142 C75      3.5502  12.7214  10.0141   C.ar      3 RES3   0.0000
   143 H51      3.6971  13.2280   9.2473   H         3 RES3   0.0000
   144 C76      4.5249  11.7398  10.4027   C.ar      3 RES3   0.0000
   145 H52      5.3278  11.6165   9.9496   H         3 RES3   0.0000
   146 C77      4.1818  11.0207  11.4665   C.ar      3 RES3   0.0000
   147 H53      4.8121  10.4328  11.8146   H         3 RES3   0.0000
   148 C78      2.9716  11.0889  12.0787   C.ar      3 RES3   0.0000
   149 H54      2.7207  10.4223  12.6759   H         3 RES3   0.0000
   150 C79      1.0742  13.9655  13.8177   C.1       3 RES3   0.0000
   151 C80     -0.5362  13.5823  11.7846   C.1       3 RES3   0.0000
   152 C81     -1.1758  12.6401  14.0038   C.1       3 RES3   0.0000
   153 N7      -0.3536  10.5010  12.1192   N.2       3 RES3   0.0000
   154 N8      -0.9290   8.3698  12.0007   N.pl3     3 RES3   0.0000
   155 N9       2.1295  12.1125  11.8326   N.ar      3 RES3   0.0000
   156 O9       1.5244  14.9235  14.3144   O.2       3 RES3   0.0000
   157 O10     -1.0557  14.3303  11.0674   O.2       3 RES3   0.0000
   158 O11     -2.1468  12.7293  14.8516   O.2       3 RES3   0.0000
   159 O12      1.2245  11.0496  14.3459   O.3       3 RES3   0.0000
   160 Re4      8.5883  18.9777   0.1966   Re        4 RES4   0.0000
   161 C82      9.8050  15.3907   2.5208   C.ar      4 RES4   0.0000
   162 C83     10.0625  14.7870   3.6131   C.ar      4 RES4   0.0000
   163 H55     10.3169  13.8920   3.6281   H         4 RES4   0.0000
   164 C84      9.9379  15.5849   4.8705   C.ar      4 RES4   0.0000
   165 H56     10.0710  15.1938   5.7033   H         4 RES4   0.0000
   166 C85      9.6179  16.9182   4.7535   C.ar      4 RES4   0.0000
   167 H57      9.6202  17.4431   5.5217   H         4 RES4   0.0000
   168 C86      9.3004  17.5035   3.5741   C.ar      4 RES4   0.0000
   169 H58      8.9808  18.3774   3.5501   H         4 RES4   0.0000
   170 C87      9.4528  16.7948   2.4352   C.ar      4 RES4   0.0000
   171 C88      9.4804  15.9549   0.3646   C.2       4 RES4   0.0000
   172 C89      9.4356  15.8762  -1.0803   C.ar      4 RES4   0.0000
   173 C90      8.4794  16.7712  -1.7976   C.ar      4 RES4   0.0000
   174 C91      8.4031  16.5796  -3.1375   C.ar      4 RES4   0.0000
   175 H59      7.7374  17.0363  -3.6026   H         4 RES4   0.0000
   176 C92      9.2649  15.7371  -3.8787   C.ar      4 RES4   0.0000
   177 H60      9.2238  15.6872  -4.8075   H         4 RES4   0.0000
   178 C93     10.1526  15.0048  -3.1675   C.ar      4 RES4   0.0000
   179 H61     10.7020  14.3986  -3.6101   H         4 RES4   0.0000
   180 C94     10.2602  15.1413  -1.7795   C.ar      4 RES4   0.0000
   181 H62     10.9464  14.6925  -1.3384   H         4 RES4   0.0000
   182 C95      9.7383  13.4721   0.8868   C.ar      4 RES4   0.0000
   183 C96     10.7597  12.7739   1.1869   C.ar      4 RES4   0.0000
   184 H63     11.5164  13.1860   1.5410   H         4 RES4   0.0000
   185 C97     10.7452  11.3671   0.9783   C.ar      4 RES4   0.0000
   186 H64     11.5019  10.8553   1.1524   H         4 RES4   0.0000
   187 C98      9.6031  10.7792   0.5177   C.ar      4 RES4   0.0000
   188 H65      9.5427   9.8580   0.3946   H         4 RES4   0.0000
   189 C99      8.4777  11.6637   0.2281   C.ar      4 RES4   0.0000
   190 H66      7.6663  11.2963  -0.0435   H         4 RES4   0.0000
   191 C100     8.5919  12.9865   0.3481   C.ar      4 RES4   0.0000
   192 H67      7.9091  13.5561   0.0735   H         4 RES4   0.0000
   193 C101     5.9295  17.6714   1.1118   C.ar      4 RES4   0.0000
   194 H68      6.1411  17.1071   0.4036   H         4 RES4   0.0000
   195 C102     4.7386  17.4352   1.8096   C.ar      4 RES4   0.0000
   196 H69      4.1844  16.7030   1.6550   H         4 RES4   0.0000
   197 C103     4.4660  18.4536   2.7954   C.ar      4 RES4   0.0000
   198 H70      3.6804  18.3774   3.2845   H         4 RES4   0.0000
   199 C104     5.2095  19.4299   3.0399   C.ar      4 RES4   0.0000
   200 H71      4.9794  20.0834   3.6596   H         4 RES4   0.0000
   201 C105     6.4149  19.4693   2.3137   C.ar      4 RES4   0.0000
   202 C106     9.4022  20.0992   1.4870   C.1       4 RES4   0.0000
   203 C107     7.8364  20.5165  -0.6932   C.1       4 RES4   0.0000
   204 C108    10.1849  19.1727  -0.9153   C.1       4 RES4   0.0000
   205 N10      9.2599  17.1229   1.0413   N.2       4 RES4   0.0000
   206 N11      9.7836  14.9550   1.1449   N.pl3     4 RES4   0.0000
   207 N12      6.7564  18.6320   1.3984   N.ar      4 RES4   0.0000
   208 O13      9.9130  20.8210   2.2102   O.2       4 RES4   0.0000
   209 O14      7.4041  21.4299  -1.1749   O.2       4 RES4   0.0000
   210 O15     11.1338  19.4562  -1.4014   O.2       4 RES4   0.0000
   211 O16      7.7247  17.6347  -1.2019   O.3       4 RES4   0.0000
@<TRIPOS>BOND
     1     1    44    1
     2     2     3   ar
     3     3     4    1
     4     5     3   ar
     5     6     5    1
     6     7     5   ar
     7     8     7    1
     8     9     7   ar
     9    10     9    1
    10    11     2   ar
    11    12    13    1
    12    13    14   ar
    13    14    15   ar
    14    15    16    1
    15    17    15   ar
    16    18    17    1
    17    19    17   ar
    18    20    19    1
    19    21    13   ar
    20    22    21    1
    21    23    24   ar
    22    24    25    1
    23    26    24   ar
    24    27    26    1
    25    28    26   ar
    26    29    28    1
    27    30    28   ar
    28    31    30    1
    29    32    23   ar
    30    33    32    1
    31    34    35    1
    32    36    34   ar
    33    37    36    1
    34    38    36   ar
    35    39    38    1
    36    40    38   ar
    37    41    40    1
    38    42    40   ar
    39    43    42    1
    40    44    50    3
    41    45     1    1
    42    46     1    1
    43    47     1    1
    44    48     2    1
    45    49     1    1
    46    51    45    3
    47    52    46    3
    48    53     1    1
    49     9    11   ar
    50    11    47    1
    51    12    47    2
    52    12    48    1
    53    14    53    1
    54    19    21   ar
    55    23    48    1
    56    30    32   ar
    57    34    49   ar
    58    42    49   ar
    59    54    97    1
    60    55    56   ar
    61    56    57    1
    62    58    56   ar
    63    59    58    1
    64    60    58   ar
    65    61    60    1
    66    62    60   ar
    67    63    62    1
    68    64    55   ar
    69    65    66    1
    70    66    67   ar
    71    67    68   ar
    72    68    69    1
    73    70    68   ar
    74    71    70    1
    75    72    70   ar
    76    73    72    1
    77    74    66   ar
    78    75    74    1
    79    76    77   ar
    80    77    78    1
    81    79    77   ar
    82    80    79    1
    83    81    79   ar
    84    82    81    1
    85    83    81   ar
    86    84    83    1
    87    85    76   ar
    88    86    85    1
    89    87    88    1
    90    89    87   ar
    91    90    89    1
    92    91    89   ar
    93    92    91    1
    94    93    91   ar
    95    94    93    1
    96    95    93   ar
    97    96    95    1
    98    97   103    3
    99    98    54    1
   100    99    54    1
   101   100    54    1
   102   101    64    1
   103   102    54    1
   104   104    98    3
   105   105    99    3
   106   106    54    1
   107    55   100    1
   108    62    64   ar
   109    65   100    2
   110    65   101    1
   111    67   106    1
   112    72    74   ar
   113    76   101    1
   114    83    85   ar
   115    87   102   ar
   116    95   102   ar
   117   107   150    1
   118   108   109   ar
   119   109   110    1
   120   111   109   ar
   121   112   111    1
   122   113   111   ar
   123   114   113    1
   124   115   113   ar
   125   116   115    1
   126   117   108   ar
   127   118   119    1
   128   119   120   ar
   129   120   121   ar
   130   121   122    1
   131   123   121   ar
   132   124   123    1
   133   125   123   ar
   134   126   125    1
   135   127   119   ar
   136   128   127    1
   137   129   130   ar
   138   130   131    1
   139   132   130   ar
   140   133   132    1
   141   134   132   ar
   142   135   134    1
   143   136   134   ar
   144   137   136    1
   145   138   129   ar
   146   139   138    1
   147   140   141    1
   148   142   140   ar
   149   143   142    1
   150   144   142   ar
   151   145   144    1
   152   146   144   ar
   153   147   146    1
   154   148   146   ar
   155   149   148    1
   156   150   156    3
   157   151   107    1
   158   152   107    1
   159   153   107    1
   160   154   108    1
   161   155   107    1
   162   157   151    3
   163   158   152    3
   164   159   107    1
   165   115   117   ar
   166   117   153    1
   167   118   153    2
   168   118   154    1
   169   120   159    1
   170   125   127   ar
   171   129   154    1
   172   136   138   ar
   173   140   155   ar
   174   148   155   ar
   175   160   202    1
   176   161   162   ar
   177   162   163    1
   178   164   162   ar
   179   165   164    1
   180   166   164   ar
   181   167   166    1
   182   168   166   ar
   183   169   168    1
   184   170   161   ar
   185   171   172    1
   186   172   173   ar
   187   173   174   ar
   188   174   175    1
   189   176   174   ar
   190   177   176    1
   191   178   176   ar
   192   179   178    1
   193   180   172   ar
   194   181   180    1
   195   182   183   ar
   196   183   184    1
   197   185   183   ar
   198   186   185    1
   199   187   185   ar
   200   188   187    1
   201   189   187   ar
   202   190   189    1
   203   191   182   ar
   204   192   191    1
   205   193   194    1
   206   195   193   ar
   207   196   195    1
   208   197   195   ar
   209   198   197    1
   210   199   197   ar
   211   200   199    1
   212   201   199   ar
   213   202   208    3
   214   203   160    1
   215   204   160    1
   216   205   160    1
   217   206   161    1
   218   207   160    1
   219   209   203    3
   220   210   204    3
   221   211   160    1
   222   168   170   ar
   223   170   205    1
   224   171   205    2
   225   171   206    1
   226   173   211    1
   227   178   180   ar
   228   182   206    1
   229   189   191   ar
   230   193   207   ar
   231   201   207   ar
@<TRIPOS>SUBSTRUCTURE
     1 RES1        1 GROUP             0 ****  ****    0  
     2 RES2       54 GROUP             0 ****  ****    0  
     3 RES3      107 GROUP             0 ****  ****    0  
     4 RES4      160 GROUP             0 ****  ****    0  
@<TRIPOS>CRYSIN
   24.1260   26.2460   15.4830   90.0000  104.2800   90.0000     9     1
