# MOL2 file generated by ConQuest
# Please check atom types

@<TRIPOS>MOLECULE
ITADAK
    86    93     2
SMALL
NO_CHARGES
****
Generated from CSD

@<TRIPOS>ATOM
      1 C1        10.1106   14.0347    3.8221 C.ar      1 RES1    0.0000
      2 C2        10.9505   13.3714    2.9229 C.ar      1 RES1    0.0000
      3 H1        11.7782   13.7717    2.6848 H         1 RES1    0.0000
      4 C3        10.6100   12.1368    2.3653 C.ar      1 RES1    0.0000
      5 H2        11.1970   11.7157    1.7486 H         1 RES1    0.0000
      6 C4         9.4228   11.5325    2.7083 C.ar      1 RES1    0.0000
      7 H3         9.1968   10.6827    2.3466 H         1 RES1    0.0000
      8 C5         8.5525   12.1781    3.5937 C.ar      1 RES1    0.0000
      9 H4         7.7297   11.7620    3.8198 H         1 RES1    0.0000
     10 C6         8.8680   13.4233    4.1546 C.ar      1 RES1    0.0000
     11 C7         8.3100   14.4672    6.8386 C.ar      1 RES1    0.0000
     12 C8         8.1653   15.6261    7.6566 C.ar      1 RES1    0.0000
     13 C9         8.6448   15.5629    8.9686 C.ar      1 RES1    0.0000
     14 H5         8.5214   16.3110    9.5416 H         1 RES1    0.0000
     15 C10        9.2981   14.4344    9.4610 C.ar      1 RES1    0.0000
     16 H6         9.6124   14.4201   10.3572 H         1 RES1    0.0000
     17 C11        9.4888   13.3323    8.6413 C.ar      1 RES1    0.0000
     18 H7         9.9600   12.5735    8.9624 H         1 RES1    0.0000
     19 C12        8.9864   13.3474    7.3505 C.ar      1 RES1    0.0000
     20 H8         9.1013   12.5836    6.7989 H         1 RES1    0.0000
     21 C13        5.7995   17.0532    6.7782 C.ar      1 RES1    0.0000
     22 C14        5.0736   16.2107    7.6162 C.ar      1 RES1    0.0000
     23 H9         5.5219   15.7250    8.2986 H         1 RES1    0.0000
     24 C15        3.6998   16.0762    7.4631 C.ar      1 RES1    0.0000
     25 H10        3.2122   15.4934    8.0325 H         1 RES1    0.0000
     26 C16        3.0477   16.7900    6.4842 C.ar      1 RES1    0.0000
     27 H11        2.1059   16.7117    6.3903 H         1 RES1    0.0000
     28 C17        3.7619   17.6225    5.6340 C.ar      1 RES1    0.0000
     29 H12        3.3090   18.1072    4.9547 H         1 RES1    0.0000
     30 C18        5.1375   17.7496    5.7732 C.ar      1 RES1    0.0000
     31 H13        5.6264   18.3106    5.1833 H         1 RES1    0.0000
     32 C19        7.8130   18.4552    8.2964 C.ar      1 RES1    0.0000
     33 C20        9.0946   18.8202    8.6975 C.ar      1 RES1    0.0000
     34 H14        9.8441   18.4113    8.2814 H         1 RES1    0.0000
     35 C21        9.3075   19.7683    9.6898 C.ar      1 RES1    0.0000
     36 H15       10.1929   19.9840    9.9580 H         1 RES1    0.0000
     37 C22        8.2415   20.3907   10.2803 C.ar      1 RES1    0.0000
     38 H16        8.3817   21.0291   10.9709 H         1 RES1    0.0000
     39 C23        6.9672   20.0857    9.8672 C.ar      1 RES1    0.0000
     40 H17        6.2290   20.5478   10.2460 H         1 RES1    0.0000
     41 C24        6.7426   19.1046    8.8972 C.ar      1 RES1    0.0000
     42 H18        5.8541   18.8805    8.6477 H         1 RES1    0.0000
     43 C25        6.1873   13.1356    5.4050 C.ar      1 RES1    0.0000
     44 C26        4.9390   13.6152    4.9981 C.ar      1 RES1    0.0000
     45 H19        4.8631   14.4745    4.6009 H         1 RES1    0.0000
     46 C27        3.8111   12.8261    5.1775 C.ar      1 RES1    0.0000
     47 H20        2.9620   13.1535    4.9078 H         1 RES1    0.0000
     48 C28        3.9102   11.5677    5.7430 C.ar      1 RES1    0.0000
     49 H21        3.1333   11.0310    5.8502 H         1 RES1    0.0000
     50 C29        5.1416   11.0915    6.1512 C.ar      1 RES1    0.0000
     51 H22        5.2101   10.2276    6.5406 H         1 RES1    0.0000
     52 C30        6.2766   11.8716    5.9933 C.ar      1 RES1    0.0000
     53 H23        7.1185   11.5445    6.2870 H         1 RES1    0.0000
     54 C31       12.0020   16.2461    3.4271 C.ar      1 RES1    0.0000
     55 C32       11.7130   17.1809    2.4317 C.ar      1 RES1    0.0000
     56 H24       10.8244   17.4991    2.3247 H         1 RES1    0.0000
     57 C33       12.7218   17.6501    1.5938 C.ar      1 RES1    0.0000
     58 H25       12.5129   18.2723    0.9064 H         1 RES1    0.0000
     59 C34       14.0232   17.2179    1.7540 C.ar      1 RES1    0.0000
     60 H26       14.7078   17.5373    1.1772 H         1 RES1    0.0000
     61 C35       14.3258   16.3178    2.7595 C.ar      1 RES1    0.0000
     62 H27       15.2232   16.0331    2.8820 H         1 RES1    0.0000
     63 C36       13.3229   15.8255    3.5940 C.ar      1 RES1    0.0000
     64 H28       13.5389   15.2014    4.2784 H         1 RES1    0.0000
     65 C37       11.5180   15.2093    6.0593 C.ar      1 RES1    0.0000
     66 C38       11.5695   16.1650    7.0705 C.ar      1 RES1    0.0000
     67 H29       11.1718   17.0178    6.9351 H         1 RES1    0.0000
     68 C39       12.1990   15.8823    8.2756 C.ar      1 RES1    0.0000
     69 H30       12.2265   16.5365    8.9639 H         1 RES1    0.0000
     70 C40       12.7868   14.6422    8.4681 C.ar      1 RES1    0.0000
     71 H31       13.2014   14.4402    9.2989 H         1 RES1    0.0000
     72 C41       12.7749   13.6952    7.4590 C.ar      1 RES1    0.0000
     73 H32       13.2027   12.8575    7.5894 H         1 RES1    0.0000
     74 C42       12.1379   13.9676    6.2580 C.ar      1 RES1    0.0000
     75 H33       12.1217   13.3126    5.5700 H         1 RES1    0.0000
     76 P1        10.6369   15.6771    4.5211 P.3       1 RES1    0.0000
     77 P2         7.5942   14.2646    5.1733 P.3       1 RES1    0.0000
     78 P3         7.6097   17.2357    6.9322 P.3       1 RES1    0.0000
     79 Br1        8.1699   18.9648    2.8365 Br        1 RES1    0.0000
     80 Ag1        8.8146   17.3627    4.7393 Ag        1 RES1    0.0000
     81 O1         7.1191   15.5226    4.5241 O.2       1 RES1    0.0000
     82 C43       15.3215   20.3017   13.2356 C.3       2 RES2    0.0000
     83 H34       14.4870   19.9135   12.8682 H         2 RES2    0.0000
     84 H35       15.2722   21.2848   13.1297 H         2 RES2    0.0000
     85 Cl1       16.6964   19.6873   12.3270 Cl        2 RES2    0.0000
     86 Cl2       15.4402   19.9058   14.9544 Cl        2 RES2    0.0000
@<TRIPOS>BOND
     1    1    2 ar
     2    2    3 1
     3    4    2 ar
     4    5    4 1
     5    6    4 ar
     6    7    6 1
     7    8    6 ar
     8    9    8 1
     9   10    1 ar
    10   11   12 ar
    11   12   13 ar
    12   13   14 1
    13   15   13 ar
    14   16   15 1
    15   17   15 ar
    16   18   17 1
    17   19   11 ar
    18   20   19 1
    19   21   22 ar
    20   22   23 1
    21   24   22 ar
    22   25   24 1
    23   26   24 ar
    24   27   26 1
    25   28   26 ar
    26   29   28 1
    27   30   21 ar
    28   31   30 1
    29   32   33 ar
    30   33   34 1
    31   35   33 ar
    32   36   35 1
    33   37   35 ar
    34   38   37 1
    35   39   37 ar
    36   40   39 1
    37   41   32 ar
    38   42   41 1
    39   43   44 ar
    40   44   45 1
    41   46   44 ar
    42   47   46 1
    43   48   46 ar
    44   49   48 1
    45   50   48 ar
    46   51   50 1
    47   52   43 ar
    48   53   52 1
    49   54   55 ar
    50   55   56 1
    51   57   55 ar
    52   58   57 1
    53   59   57 ar
    54   60   59 1
    55   61   59 ar
    56   62   61 1
    57   63   54 ar
    58   64   63 1
    59   65   66 ar
    60   66   67 1
    61   68   66 ar
    62   69   68 1
    63   70   68 ar
    64   71   70 1
    65   72   70 ar
    66   73   72 1
    67   74   65 ar
    68   75   74 1
    69   76    1 1
    70   77   10 1
    71   78   12 1
    72   79   80 1
    73   80   76 1
    74   81   77 2
    75   82   83 1
    76   84   82 1
    77   85   82 1
    78   86   82 1
    79    8   10 ar
    80   11   77 1
    81   17   19 ar
    82   21   78 1
    83   28   30 ar
    84   32   78 1
    85   39   41 ar
    86   43   77 1
    87   50   52 ar
    88   54   76 1
    89   61   63 ar
    90   65   76 1
    91   72   74 ar
    92   78   80 1
    93   80   81 1
@<TRIPOS>SUBSTRUCTURE
     1 RES1 1
     2 RES2 82

@<TRIPOS>CRYSIN
  12.3270   20.1370   16.3540  90.0000 106.8150  90.0000 231 1

