# MOL2 file generated by ConQuest
# Please check atom types

@<TRIPOS>MOLECULE
NAGWIB
    72    75     1
SMALL
USER_CHARGES
****
Generated from CSD

@<TRIPOS>ATOM
      1 Sn1       -0.6883    2.7750    6.6108 Sn        1 RES1    0.0000
      2 O1         1.1968    3.2043    7.8430 O.co2     1 RES1    0.0000
      3 O2         1.0400    5.2116    6.8966 O.co2     1 RES1    0.0000
      4 O3        -2.3751    1.7141    5.7202 O.co2     1 RES1    0.0000
      5 O4        -2.4395    3.6270    4.6389 O.co2     1 RES1   -1.0000
      6 O5        -0.7452    1.1618    7.8525 O.co2     1 RES1    0.0000
      7 O6         0.3317   -0.1900    6.4272 O.co2     1 RES1    0.0000
      8 N1         3.3068    2.6256    9.2398 N.2       1 RES1    0.0000
      9 N2         1.3029   -2.1742   13.0197 N.3       1 RES1    0.0000
     10 N3        -4.4693    0.0516    5.4827 N.4       1 RES1    1.0000
     11 N4         0.6477   -2.7584    7.1475 N.pl3     1 RES1    0.0000
     12 C1         1.6941    4.3584    7.4857 C.2       1 RES1    0.0000
     13 C2         3.1641    4.5505    7.7860 C.ar      1 RES1    0.0000
     14 C3         3.7637    5.6333    7.1703 C.ar      1 RES1    0.0000
     15 C4         5.1004    5.9374    7.3793 C.ar      1 RES1    0.0000
     16 C5         5.8353    5.1171    8.1984 C.ar      1 RES1    0.0000
     17 C6         5.2813    4.0366    8.8179 C.ar      1 RES1    0.0000
     18 C7         3.9343    3.7577    8.6165 C.ar      1 RES1    0.0000
     19 C8         3.8017    1.9206   10.2261 C.2       1 RES1    0.0000
     20 C9         3.1376    0.8620   10.8761 C.ar      1 RES1    0.0000
     21 C10        3.7859    0.2053   11.9118 C.ar      1 RES1    0.0000
     22 C11        3.2246   -0.8203   12.6130 C.ar      1 RES1    0.0000
     23 C12        1.9063   -1.2398   12.3204 C.ar      1 RES1    0.0000
     24 C13        1.2442   -0.5732   11.2276 C.ar      1 RES1    0.0000
     25 C14        1.8529    0.4074   10.5530 C.ar      1 RES1    0.0000
     26 C15        1.9513   -2.8331   14.1448 C.3       1 RES1    0.0000
     27 C16       -0.0478   -2.6354   12.7157 C.3       1 RES1    0.0000
     28 C17       -2.8858    2.4718    4.8575 C.2       1 RES1    0.0000
     29 C18       -4.0766    1.9799    4.0726 C.ar      1 RES1    0.0000
     30 C19       -4.7646    0.8236    4.4242 C.ar      1 RES1    0.0000
     31 C20       -5.9011    0.5051    3.6127 C.ar      1 RES1    0.0000
     32 C21       -6.2575    1.2518    2.5599 C.ar      1 RES1    0.0000
     33 C22       -5.5488    2.3719    2.2159 C.ar      1 RES1    0.0000
     34 C23       -4.4836    2.8111    2.9513 C.ar      1 RES1    0.0000
     35 C24       -0.3771   -0.0187    7.4325 C.2       1 RES1    0.0000
     36 C25       -0.8966   -1.1761    8.2136 C.ar      1 RES1    0.0000
     37 C26       -0.3906   -2.4828    8.0121 C.ar      1 RES1    0.0000
     38 C27       -0.9515   -3.4985    8.7704 C.ar      1 RES1    0.0000
     39 C28       -1.9408   -3.2833    9.6807 C.ar      1 RES1    0.0000
     40 C29       -2.4505   -1.9766    9.8879 C.ar      1 RES1    0.0000
     41 C30       -1.9027   -0.9422    9.1524 C.ar      1 RES1    0.0000
     42 C31        0.5692    2.6794    4.9335 C.3       1 RES1    0.0000
     43 C32       -1.8581    4.0959    7.7366 C.3       1 RES1    0.0000
     44 H1         3.2406    6.1889    6.5773 H         1 RES1    0.0000
     45 H2         5.5067    6.7083    6.9593 H         1 RES1    0.0000
     46 H3         6.7770    5.3115    8.3466 H         1 RES1    0.0000
     47 H4         5.8175    3.4678    9.3918 H         1 RES1    0.0000
     48 H5         4.6969    2.1424   10.5283 H         1 RES1    0.0000
     49 H6         4.6843    0.4909   12.1512 H         1 RES1    0.0000
     50 H7         3.7287   -1.2661   13.3105 H         1 RES1    0.0000
     51 H8         0.3421   -0.8357   10.9863 H         1 RES1    0.0000
     52 H9         1.3887    0.8137    9.8042 H         1 RES1    0.0000
     53 H10        1.3453   -3.4909   14.5249 H         1 RES1    0.0000
     54 H11        2.7574   -3.2800   13.8350 H         1 RES1    0.0000
     55 H12        2.1823   -2.1775   14.8175 H         1 RES1    0.0000
     56 H13       -0.6618   -1.8843   12.7784 H         1 RES1    0.0000
     57 H14       -0.0695   -2.9934   11.8168 H         1 RES1    0.0000
     58 H15       -0.3022   -3.3174   13.3485 H         1 RES1    0.0000
     59 H16       -6.4270   -0.2723    3.8236 H         1 RES1    0.0000
     60 H17       -7.0318    1.0135    2.0315 H         1 RES1    0.0000
     61 H18       -5.8007    2.8770    1.4234 H         1 RES1    0.0000
     62 H19       -4.0181    3.6292    2.7366 H         1 RES1    0.0000
     63 H20       -0.6272   -4.4045    8.6488 H         1 RES1    0.0000
     64 H21       -2.3029   -4.0223   10.1900 H         1 RES1    0.0000
     65 H22       -3.1610   -1.8152   10.5283 H         1 RES1    0.0000
     66 H23       -2.2223   -0.0373    9.2930 H         1 RES1    0.0000
     67 H24        1.2363    1.9843    5.0684 H         1 RES1    0.0000
     68 H25        0.0451    2.4740    4.1448 H         1 RES1    0.0000
     69 H26        1.0163    3.5315    4.8137 H         1 RES1    0.0000
     70 H27       -1.4423    4.2376    8.6051 H         1 RES1    0.0000
     71 H28       -1.9254    4.9469    7.2729 H         1 RES1    0.0000
     72 H29       -2.7431    3.7237    7.8620 H         1 RES1    0.0000
@<TRIPOS>BOND
     1    1    2 1
     2    2   12 1
     3    3   12 2
     4    4    1 1
     5    5   28 1
     6    6    1 1
     7    7   35 2
     8    8   18 1
     9    9   23 1
    10   10   30 1
    11   11   37 1
    12   12   13 1
    13   13   14 ar
    14   14   15 ar
    15   15   16 ar
    16   16   17 ar
    17   17   18 ar
    18   18   13 ar
    19   19    8 2
    20   20   19 1
    21   21   20 ar
    22   22   21 ar
    23   23   22 ar
    24   24   23 ar
    25   25   20 ar
    26   26    9 1
    27   27    9 1
    28   28    4 2
    29   29   28 1
    30   30   29 ar
    31   31   30 ar
    32   32   31 ar
    33   33   32 ar
    34   34   29 ar
    35   35    6 1
    36   36   35 1
    37   37   36 ar
    38   38   37 ar
    39   39   38 ar
    40   40   39 ar
    41   41   36 ar
    42   42    1 1
    43   43    1 1
    44   44   14 1
    45   45   15 1
    46   46   16 1
    47   47   17 1
    48   48   19 1
    49   49   21 1
    50   50   22 1
    51   51   24 1
    52   52   25 1
    53   53   26 1
    54   54   26 1
    55   55   26 1
    56   56   27 1
    57   57   27 1
    58   58   27 1
    59   59   31 1
    60   60   32 1
    61   61   33 1
    62   62   34 1
    63   63   38 1
    64   64   39 1
    65   65   40 1
    66   66   41 1
    67   67   42 1
    68   68   42 1
    69   69   42 1
    70   70   43 1
    71   71   43 1
    72   72   43 1
    73   24   25 ar
    74   33   34 ar
    75   40   41 ar
@<TRIPOS>SUBSTRUCTURE
     1 RES1 1

@<TRIPOS>CRYSIN
  14.7180   10.9810   20.3210  90.0000 110.7400  90.0000 231 1

