# MOL2 file generated by ConQuest
# Please check atom types

@<TRIPOS>MOLECULE
QEZCUU
    72    76     2
SMALL
USER_CHARGES
****
Generated from CSD

@<TRIPOS>ATOM
      1 Ce1       11.2675   11.2675   11.2675 Ce        1 RES1    3.0000
      2 O1         9.4374   12.5389   10.0540 O.2       1 RES1    0.0000
      3 N1         9.7809   11.6294    9.1936 N.2       1 RES1    0.0000
      4 C1         9.1355   11.5656    8.0563 C.2       1 RES1   -1.0000
      5 N2         9.8183    9.6928    6.4342 N.1       1 RES1    0.0000
      6 C2         8.0790   12.4828    7.7525 C.1       1 RES1    0.0000
      7 C3         9.5037   10.5315    7.1582 C.1       1 RES1    0.0000
      8 N3        14.7656   11.2675    5.6338 N.4       2 RES2    1.0000
      9 C4        13.9030   11.0473    4.4051 C.3       2 RES2    0.0000
     10 H1        13.3880   11.8737    4.2298 H         2 RES2    0.0000
     11 H2        14.4968   10.8957    3.6281 H         2 RES2    0.0000
     12 N4         7.2373   13.2362    7.5657 N.1       1 RES1    0.0000
     13 C5        12.9355    9.8908    4.5020 C.3       2 RES2    0.0000
     14 H3        13.4331    9.0613    4.6647 H         2 RES2    0.0000
     15 H4        12.4348    9.8140    3.6642 H         2 RES2    0.0000
     16 H5        12.3109   10.0484    5.2416 H         2 RES2    0.0000
     17 C6        15.6197   10.0502    5.9294 C.3       2 RES2    0.0000
     18 H6        16.1756   10.2444    6.7244 H         2 RES2    0.0000
     19 H7        15.0218    9.2957    6.1633 H         2 RES2    0.0000
     20 C7        16.5337    9.6064    4.7997 C.3       2 RES2    0.0000
     21 H8        15.9931    9.3295    4.0315 H         2 RES2    0.0000
     22 H9        17.0838    8.8517    5.0997 H         2 RES2    0.0000
     23 H10       17.1153   10.3503    4.5385 H         2 RES2    0.0000
     24 O1A       10.0540    9.4374   12.5389 O.2       1 RES1    0.0000
     25 O1B       12.5389   10.0540    9.4374 O.2       1 RES1    0.0000
     26 O1X       13.0976    9.9961   12.4810 O.2       1 RES1    0.0000
     27 O1Y       12.4810   13.0976    9.9961 O.2       1 RES1    0.0000
     28 O1Z        9.9961   12.4810   13.0976 O.2       1 RES1    0.0000
     29 N1A        9.1936    9.7809   11.6294 N.2       1 RES1    0.0000
     30 N1B       11.6294    9.1936    9.7809 N.2       1 RES1    0.0000
     31 N1X       12.7541   10.9056   13.3414 N.2       1 RES1    0.0000
     32 N1Y       13.3414   12.7541   10.9056 N.2       1 RES1    0.0000
     33 N1Z       10.9056   13.3414   12.7541 N.2       1 RES1    0.0000
     34 C1Z       10.9694   14.4787   13.3995 C.2       1 RES1   -1.0000
     35 C1Y       14.4787   13.3995   10.9694 C.2       1 RES1   -1.0000
     36 C1X       13.3995   10.9694   14.4787 C.2       1 RES1   -1.0000
     37 C1B       11.5656    8.0563    9.1355 C.2       1 RES1   -1.0000
     38 C1A        8.0563    9.1355   11.5656 C.2       1 RES1   -1.0000
     39 N2Z       12.8422   16.1008   12.7167 N.1       1 RES1    0.0000
     40 N2Y       16.1008   12.7167   12.8422 N.1       1 RES1    0.0000
     41 N2X       12.7167   12.8422   16.1008 N.1       1 RES1    0.0000
     42 N2B        9.6928    6.4342    9.8183 N.1       1 RES1    0.0000
     43 N2A        6.4342    9.8183    9.6928 N.1       1 RES1    0.0000
     44 C2Z       10.0522   14.7825   14.4560 C.1       1 RES1    0.0000
     45 C2Y       14.7825   14.4560   10.0522 C.1       1 RES1    0.0000
     46 C2X       14.4560   10.0522   14.7825 C.1       1 RES1    0.0000
     47 C2B       12.4828    7.7525    8.0790 C.1       1 RES1    0.0000
     48 C2A        7.7525    8.0790   12.4828 C.1       1 RES1    0.0000
     49 C3Z       12.0035   15.3768   13.0313 C.1       1 RES1    0.0000
     50 C3Y       15.3768   13.0313   12.0035 C.1       1 RES1    0.0000
     51 C3X       13.0313   12.0035   15.3768 C.1       1 RES1    0.0000
     52 C3B       10.5315    7.1582    9.5037 C.1       1 RES1    0.0000
     53 C3A        7.1582    9.5037   10.5315 C.1       1 RES1    0.0000
     54 C4M       13.9030   11.4877    6.8624 C.3       2 RES2    0.0000
     55 H1M       13.3880   10.6613    7.0377 H         2 RES2    0.0000
     56 H2M       14.4968   11.6393    7.6394 H         2 RES2    0.0000
     57 N4Z        9.2988   14.9693   15.2977 N.1       1 RES1    0.0000
     58 N4Y       14.9693   15.2977    9.2988 N.1       1 RES1    0.0000
     59 N4X       15.2977    9.2988   14.9693 N.1       1 RES1    0.0000
     60 N4B       13.2362    7.5657    7.2373 N.1       1 RES1    0.0000
     61 N4A        7.5657    7.2373   13.2362 N.1       1 RES1    0.0000
     62 C5M       12.9355   12.6442    6.7655 C.3       2 RES2    0.0000
     63 H3M       13.4331   13.4737    6.6028 H         2 RES2    0.0000
     64 H4M       12.4348   12.7210    7.6033 H         2 RES2    0.0000
     65 H5M       12.3109   12.4866    6.0259 H         2 RES2    0.0000
     66 C6M       15.6197   12.4848    5.3381 C.3       2 RES2    0.0000
     67 H6M       16.1756   12.2906    4.5431 H         2 RES2    0.0000
     68 H7M       15.0218   13.2393    5.1042 H         2 RES2    0.0000
     69 C7M       16.5337   12.9286    6.4678 C.3       2 RES2    0.0000
     70 H8M       15.9931   13.2055    7.2360 H         2 RES2    0.0000
     71 H9M       17.0838   13.6833    6.1678 H         2 RES2    0.0000
     72 H10M      17.1153   12.1847    6.7290 H         2 RES2    0.0000
@<TRIPOS>BOND
     1    1    2 1
     2    2    3 2
     3    3    1 1
     4    4    3 1
     5    5    7 3
     6    6    4 1
     7    7    4 1
     8    8    9 1
     9    9   10 1
    10   11    9 1
    11   12    6 3
    12   13    9 1
    13   14   13 1
    14   15   13 1
    15   16   13 1
    16   17    8 1
    17   18   17 1
    18   19   17 1
    19   20   17 1
    20   21   20 1
    21   22   20 1
    22   23   20 1
    23   24    1 1
    24   25    1 1
    25   26    1 1
    26   27    1 1
    27   28    1 1
    28   29    1 1
    29   30    1 1
    30   31    1 1
    31   32    1 1
    32   33    1 1
    33   34   33 1
    34   35   32 1
    35   36   31 1
    36   37   30 1
    37   38   29 1
    38   39   49 3
    39   40   50 3
    40   41   51 3
    41   42   52 3
    42   43   53 3
    43   44   34 1
    44   45   35 1
    45   46   36 1
    46   47   37 1
    47   48   38 1
    48   49   34 1
    49   50   35 1
    50   51   36 1
    51   52   37 1
    52   53   38 1
    53   54    8 1
    54   55   54 1
    55   56   54 1
    56   57   44 3
    57   58   45 3
    58   59   46 3
    59   60   47 3
    60   61   48 3
    61   62   54 1
    62   63   62 1
    63   64   62 1
    64   65   62 1
    65   66    8 1
    66   67   66 1
    67   68   66 1
    68   69   66 1
    69   70   69 1
    70   71   69 1
    71   72   69 1
    72   24   29 2
    73   25   30 2
    74   26   31 2
    75   27   32 2
    76   28   33 2
@<TRIPOS>SUBSTRUCTURE
     1 RES1 1
     2 RES2 8

