# MOL2 file generated by ConQuest
# Please check atom types

@<TRIPOS>MOLECULE
TALWOS
    37    37     1
SMALL
NO_CHARGES
****
Generated from CSD

@<TRIPOS>ATOM
      1 Al1        0.5495    5.6489    3.5157 Al        1 RES1    0.0000
      2 Al2       -0.3873    2.6131    4.6211 Al        1 RES1    0.0000
      3 Cl1        1.7800    2.7915    4.4865 Cl        1 RES1    0.0000
      4 O1        -0.7209    4.4005    4.0846 O.3       1 RES1    0.0000
      5 O2        -2.8576    3.9974    4.4877 O.3       1 RES1    0.0000
      6 N1        -1.0396    6.8815    3.1788 N.3       1 RES1    0.0000
      7 C1        -1.9812    4.9097    4.0490 C.2       1 RES1    0.0000
      8 C2        -4.2357    4.3736    4.5162 C.3       1 RES1    0.0000
      9 C3        -2.1936    6.1304    3.6352 C.2       1 RES1    0.0000
     10 C4        -1.2135    7.2040    1.7323 C.3       1 RES1    0.0000
     11 C5        -0.9562    8.1673    3.9411 C.3       1 RES1    0.0000
     12 C6         1.5551    6.3553    5.0142 C.3       1 RES1    0.0000
     13 C7         1.3290    5.1940    1.8105 C.3       1 RES1    0.0000
     14 C8        -1.0561    1.4484    3.2345 C.3       1 RES1    0.0000
     15 C9        -0.8939    2.3976    6.4903 C.3       1 RES1    0.0000
     16 H1        -4.7289    3.6112    4.8849 H         1 RES1    0.0000
     17 H2        -4.5818    4.5872    3.6258 H         1 RES1    0.0000
     18 H3        -4.3471    5.1502    5.1055 H         1 RES1    0.0000
     19 H4        -3.0923    6.5223    3.6329 H         1 RES1    0.0000
     20 H5        -0.4281    7.7119    1.4370 H         1 RES1    0.0000
     21 H6        -2.0215    7.7387    1.5840 H         1 RES1    0.0000
     22 H7        -1.2741    6.3709    1.2200 H         1 RES1    0.0000
     23 H8        -0.1945    8.6794    3.5961 H         1 RES1    0.0000
     24 H9        -0.8274    7.9962    4.8968 H         1 RES1    0.0000
     25 H10       -1.7806    8.6808    3.8095 H         1 RES1    0.0000
     26 H11        1.8832    7.2422    4.7557 H         1 RES1    0.0000
     27 H12        2.3142    5.7825    5.2501 H         1 RES1    0.0000
     28 H13        0.9582    6.4402    5.7860 H         1 RES1    0.0000
     29 H14        1.6236    6.0159    1.3647 H         1 RES1    0.0000
     30 H15        0.6865    4.7244    1.2378 H         1 RES1    0.0000
     31 H16        2.1039    4.6155    1.9741 H         1 RES1    0.0000
     32 H17       -0.8340    0.5135    3.4277 H         1 RES1    0.0000
     33 H18       -0.6124    1.7257    2.4045 H         1 RES1    0.0000
     34 H19       -2.0266    1.5404    3.1313 H         1 RES1    0.0000
     35 H20       -0.6540    1.4994    6.7998 H         1 RES1    0.0000
     36 H21       -1.8292    2.5829    6.7180 H         1 RES1    0.0000
     37 H22       -0.3154    3.0581    6.9266 H         1 RES1    0.0000
@<TRIPOS>BOND
     1    1    4 1
     2    2    3 1
     3    4    2 1
     4    5    7 1
     5    6    1 1
     6    7    4 1
     7    8    5 1
     8    9    6 1
     9   10    6 1
    10   11    6 1
    11   12    1 1
    12   13    1 1
    13   14    2 1
    14   15    2 1
    15   16    8 1
    16   17    8 1
    17   18    8 1
    18   19    9 1
    19   20   10 1
    20   21   10 1
    21   22   10 1
    22   23   11 1
    23   24   11 1
    24   25   11 1
    25   26   12 1
    26   27   12 1
    27   28   12 1
    28   29   13 1
    29   30   13 1
    30   31   13 1
    31   32   14 1
    32   33   14 1
    33   34   14 1
    34   35   15 1
    35   36   15 1
    36   37   15 1
    37    7    9 2
@<TRIPOS>SUBSTRUCTURE
     1 RES1 1

@<TRIPOS>CRYSIN
   9.4560   14.1450   12.2080  90.0000 103.7800  90.0000 231 1

