# MOL2 file generated by ConQuest
# Please check atom types

@<TRIPOS>MOLECULE
VACGUC01
    39    39     1
SMALL
NO_CHARGES
****
Generated from CSD

@<TRIPOS>ATOM
      1 Pd1       -0.9332    0.8296    2.6093 Pd        1 RES1    0.0000
      2 P1         1.2722    0.7958    1.9799 P.3       1 RES1    0.0000
      3 F1        -0.9332   -1.2300    2.6093 F         1 RES1    0.0000
      4 C1        -0.9332    2.8347    2.6093 C.ar      1 RES1    0.0000
      5 C2        -1.1687    3.5653    1.4475 C.ar      1 RES1    0.0000
      6 C3        -1.1693    4.9597    1.4476 C.ar      1 RES1    0.0000
      7 C4        -0.9332    5.6735    2.6093 C.ar      1 RES1    0.0000
      8 C5         1.9522    2.0720    0.8976 C.3       1 RES1    0.0000
      9 H1         2.9040    1.9680    0.8402 H         1 RES1    0.0000
     10 H2         1.7454    2.9387    1.2566 H         1 RES1    0.0000
     11 H3         1.5677    1.9884    0.0230 H         1 RES1    0.0000
     12 C6         2.3410    0.8147    3.4432 C.3       1 RES1    0.0000
     13 H4         3.2589    0.7648    3.1697 H         1 RES1    0.0000
     14 H5         2.1328    0.0622    4.0015 H         1 RES1    0.0000
     15 H6         2.1966    1.6264    3.9348 H         1 RES1    0.0000
     16 C7         1.7224   -0.7444    1.1470 C.3       1 RES1    0.0000
     17 H7         2.6784   -0.8290    1.1241 H         1 RES1    0.0000
     18 H8         1.3811   -0.7352    0.2494 H         1 RES1    0.0000
     19 H9         1.3470   -1.4887    1.6250 H         1 RES1    0.0000
     20 H10       -0.9332    6.5361    2.6093 H         1 RES1    0.0000
     21 H11       -1.3541    3.1100    0.6680 H         1 RES1    0.0000
     22 H12       -1.2903    5.4145    0.6888 H         1 RES1    0.0000
     23 P1F       -3.1386    0.7958    3.2386 P.3       1 RES1    0.0000
     24 C5F       -3.8186    2.0720    4.3209 C.3       1 RES1    0.0000
     25 H1F       -4.7704    1.9680    4.3783 H         1 RES1    0.0000
     26 H2F       -3.6117    2.9387    3.9619 H         1 RES1    0.0000
     27 H3F       -3.4340    1.9884    5.1955 H         1 RES1    0.0000
     28 C6F       -4.2074    0.8147    1.7753 C.3       1 RES1    0.0000
     29 H4F       -5.1252    0.7648    2.0488 H         1 RES1    0.0000
     30 H5F       -3.9991    0.0622    1.2170 H         1 RES1    0.0000
     31 H6F       -4.0629    1.6264    1.2838 H         1 RES1    0.0000
     32 C7F       -3.5888   -0.7444    4.0715 C.3       1 RES1    0.0000
     33 H7F       -4.5448   -0.8290    4.0944 H         1 RES1    0.0000
     34 H8F       -3.2475   -0.7352    4.9691 H         1 RES1    0.0000
     35 H9F       -3.2133   -1.4887    3.5935 H         1 RES1    0.0000
     36 C3F       -0.6970    4.9597    3.7709 C.ar      1 RES1    0.0000
     37 C2F       -0.6976    3.5653    3.7710 C.ar      1 RES1    0.0000
     38 H12F      -0.5761    5.4145    4.5297 H         1 RES1    0.0000
     39 H11F      -0.5122    3.1100    4.5505 H         1 RES1    0.0000
@<TRIPOS>BOND
     1    1    2 1
     2    2    8 1
     3    3    1 1
     4    4    1 1
     5    5    4 ar
     6    6    5 ar
     7    7    6 ar
     8    8    9 1
     9   10    8 1
    10   11    8 1
    11   12    2 1
    12   13   12 1
    13   14   12 1
    14   15   12 1
    15   16    2 1
    16   17   16 1
    17   18   16 1
    18   19   16 1
    19   20    7 1
    20   21    5 1
    21   22    6 1
    22   23    1 1
    23   24   23 1
    24   25   24 1
    25   26   24 1
    26   27   24 1
    27   28   23 1
    28   29   28 1
    29   30   28 1
    30   31   28 1
    31   32   23 1
    32   33   32 1
    33   34   32 1
    34   35   32 1
    35   36    7 ar
    36   37    4 ar
    37   38   36 1
    38   39   37 1
    39   36   37 ar
@<TRIPOS>SUBSTRUCTURE
     1 RES1 1

@<TRIPOS>CRYSIN
  14.2613   10.1968   11.0844  90.0000 109.6790  90.0000  15 1

